26
Energy:     231.6111571
C         -6.38857        0.35557        0.00237
C         -5.24792       -0.70879        0.02495
O         -7.03297        0.47541        1.26146
H         -7.16710       -0.03058       -0.68099
H         -6.15927        1.34743       -0.39443
C         -3.51471       -0.69181        0.32831
C         -1.93069       -1.31380        0.05851
H         -1.88226       -2.00845        0.91493
C         -0.40641       -0.94749        0.12171
H         -1.94677       -1.78166       -0.94334
C         -3.33648        0.79471       -0.05010
H         -4.25231        1.39331       -0.01669
H         -2.84380        1.05776       -0.98816
H         -2.78870        1.27875        0.77392
C         -3.84918       -2.32108       -0.01889
H         -3.04890       -3.07729       -0.03053
H         -4.32232       -2.53300       -0.98572
H         -4.40159       -2.72007        0.84394
N          0.37425       -2.23098       -0.03068
H         -0.09494       -0.50615        1.06946
H         -0.08036       -0.32244       -0.71415
H          0.16561       -2.88539        0.72734
H          1.38318       -2.07716        0.01751
H         -5.41389       -1.11505       -0.98337
H         -5.64387       -1.34179        0.83187
H         -7.81386       -0.14198        1.24282
