   17
scf done: -2682.556218
Pt    -0.001517    -0.001679    -0.000472
 P    -1.560499    -1.035950     1.458711
 P     1.734060     0.998222     1.272304
 P     0.923946    -1.634169    -1.453558
 P    -1.099548     1.666145    -1.282543
 F    -3.218341    -0.803837     1.212907
 F    -1.585583    -2.722273     1.594713
 F    -1.524113    -0.675879     3.111539
 F    -0.373117     3.181433    -1.479990
 F    -2.631897     2.208917    -0.813522
 F    -1.452634     1.370206    -2.910613
 F     1.932794     0.574383     2.898209
 F     1.760724     2.678228     1.471362
 F     3.343551     0.801809     0.788759
 F     2.493411    -2.203534    -1.178866
 F     1.093872    -1.287259    -3.100836
 F     0.163266    -3.136736    -1.615948
